FoamFile
{
    version     2.0;
    format      ascii;
    class       dictionary;
    object      decomposeParDict;
}

// Exported by SnappyHexMesh GUI add-on for Blender v1.0

numProc 22;

numberOfSubdomains $numProc;

method          scotch;

simpleCoeffs
{
    n               (1 1 $numProc);
    delta           0.001;
}

hierarchicalCoeffs
{
    n               (1 1 $numProc);
    delta           0.001;
    order           xyz;
}

manualCoeffs
{
    dataFile        "cellDecomposition";
}
