/*--------------------------------*- C++ -*----------------------------------*\
  =========                 |
  \\      /  F ield         | OpenFOAM: The Open Source CFD Toolbox
   \\    /   O peration     | Website:  https://openfoam.org
    \\  /    A nd           | Version:  8
     \\/     M anipulation  |
\*---------------------------------------------------------------------------*/
FoamFile
{
    version     2.0;
    format      ascii;
    class       dictionary;
    object      fvSolution;
}
// * * * * * * * * * * * * * * * * * * * * * * * * * * * * * * * * * * * * * //

solvers
{
    p
    {
        solver                GAMG;
        tolerance             1e-6;
        relTol                0.1;
        smoother              GaussSeidel;
        nPreSweeps            2;
        nPostSweeps           1;
        cacheAgglomeration    on;
        agglomerator          faceAreaPair;
        nCellsInCoarsestLevel 120;
        mergeLevels           1;
    }

    pFinal
    {
        $p;
        tolerance       1e-06;
        relTol          0;
    }

    U
    {
        type            coupled;
        solver          PBiCCCG;
        preconditioner  DILU;
        tolerance       (1e-05 1e-05 1e-05);
        relTol          (0.1 0.1 0.1);
        minIter         3;
    }

    UFinal
    {
        $U;
        relTol          (0 0 0);
    }


    "(k|epsilon|omega|R|nuTilda|phi)"
    {
        solver          smoothSolver;
        smoother        GaussSeidel;
        tolerance       1e-5;
        relTol          0.1;
        nSweeps         1;
    }


    "(k|omega|epsilon)Final"
    {
        $k;
        relTol          0;
    }

    T
    {
        $k;
        relTol          0;
    }
}

"(PIMPLE|PISO)"
{
    nOuterCorrectors 1;
    nCorrectors     2;
    nNonOrthogonalCorrectors 1;
}

relaxationFactors
{
    equations
    {
        ".*" 1;
    }
}

potentialFlow
{
    nNonOrthogonalCorrectors    1;
}

cache
{
    grad(U);
}

// ************************************************************************* //
