/*--------------------------------*- C++ -*----------------------------------*\
| =========                 |                                                 |
| \\      /  F ield         | OpenFOAM: The Open Source CFD Toolbox           |
|  \\    /   O peration     | Version:  v2306                                 |
|   \\  /    A nd           | Website:  www.openfoam.com                      |
|    \\/     M anipulation  |                                                 |
\*---------------------------------------------------------------------------*/
FoamFile
{
    version     2.0;
    format      ascii;
    class       volScalarField;
    object      k;
}
// * * * * * * * * * * * * * * * * * * * * * * * * * * * * * * * * * * * * * //

dimensions      [m^2 s^-2];

// https://www.simscale.com/docs/simulation-setup/global-settings/k-omega-sst/

turbulentIntensity     0.15;

internalField   uniform $turbulentKE;

boundaryField
{
    //- Set patchGroups for constraint patches
    #includeEtc "caseDicts/setConstraintTypes"

      "(inletLeft|inletRight)"
      {
            type            turbulentIntensityKineticEnergyInlet;
            intensity       $turbulentIntensity;
            value           uniform 1;
      }
      outletAtmosphere
      {
            type            zeroGradient;
      }
      "(walls|wallsDuctLeft|wallsDuctRight|wallsNozzle|wallsPart|wallsBuildplate)"
      {
            type            kLowReWallFunction;
            value           uniform 1e-20;
      }
}


// ************************************************************************* //
//
