/*--------------------------------*- C++ -*----------------------------------*\
| =========                 |                                                 |
| \\      /  F ield         | OpenFOAM: The Open Source CFD Toolbox           |
|  \\    /   O peration     | Version:  v2306                                 |
|   \\  /    A nd           | Website:  www.openfoam.com                      |
|    \\/     M anipulation  |                                                 |
\*---------------------------------------------------------------------------*/
FoamFile
{
    version     2.0;
    format      ascii;
    class       volScalarField;
    object      nut;
}
// * * * * * * * * * * * * * * * * * * * * * * * * * * * * * * * * * * * * * //

dimensions      [m^2 s^-1];

internalField   uniform 0;

boundaryField
{
    "(inletLeft|inletRight)"
    {
        type            calculated;
        value           uniform 0;
    }
    outletAtmosphere
    {
        type            calculated;
        value           uniform 0;
    }
    "(walls|wallsDuctLeft|wallsDuctRight|wallsNozzle|wallsPart|wallsBuildplate)"
    {
        type            nutLowReWallFunction;
        value           $internalField;
    }
    
    #includeEtc "caseDicts/setConstraintTypes"
}

// ************************************************************************* //
