/*--------------------------------*- C++ -*----------------------------------*\
| =========                 |                                                 |
| \\      /  F ield         | OpenFOAM: The Open Source CFD Toolbox           |
|  \\    /   O peration     | Version:  v2306                                 |
|   \\  /    A nd           | Website:  www.openfoam.com                      |
|    \\/     M anipulation  |                                                 |
\*---------------------------------------------------------------------------*/
FoamFile
{
    version     2.0;
    format      ascii;
    class       volVectorField;
    object      U;
}
// * * * * * * * * * * * * * * * * * * * * * * * * * * * * * * * * * * * * * //

dimensions      [m s^-1];

internalField   uniform (0 0 0);

boundaryField
{
    //- Set patchGroups for constraint patches
    #includeEtc "caseDicts/setConstraintTypes"

      "(inletLeft|inletRight)"
      {
        type            pressureInletOutletVelocity;
        value           uniform (0 0 0);
      }
      outletAtmosphere
      {
        type            inletOutlet;
        inletValue      uniform (0 0 0);
        value           uniform (0 0 0);
      }
      "(walls|wallsDuctLeft|wallsDuctRight|wallsNozzle|wallsPart|wallsBuildplate)"
      {
        type                noSlip;
      }
}

// ************************************************************************* //
